*INCLUDE, INPUT=plate.msh
*SURFACE, NAME=interface, TYPE=NODE
solid_wetSurface,
*MATERIAL, NAME=solid
*DENSITY
0.1
*CONDUCTIVITY
100
*SPECIFIC HEAT
1000
*SOLID SECTION, ELSET=Eall, MATERIAL=solid
*INITIAL CONDITIONS, TYPE=TEMPERATURE
Nall, 310
*HEAT TRANSFER, DIRECT
0.01, 1
*BOUNDARY
Nsolid_bottom,11,11,310

*DFLUX
Esolid_sides,
