*INCLUDE, INPUT=solid_mesh.msh
*INCLUDE, INPUT=plate_bottom.nam
*INCLUDE, INPUT=plate_sides.nam
*INCLUDE, INPUT=wetSurface_solid.nam
*INCLUDE, INPUT=interface.sur
*MATERIAL, NAME=solid
*DENSITY
0.1
*CONDUCTIVITY
100
*SPECIFIC HEAT
1000
*SOLID SECTION, ELSET=Eall, MATERIAL=solid
*INITIAL CONDITIONS, TYPE=TEMPERATURE
Nall, 310